%nprocshared=24
%mem=58GB
%Nosave
%chk=chkpt.chk
#p opt b3lyp/6-311++G(d,p) integral=(acc2e=12)

ciba

0 1
 N   -0.692000    1.521000   -0.166000
 C    0.197000    0.497000   -0.332000
 C   -0.222000   -0.777000   -0.310000
 C   -1.564000   -1.171000   -0.128000
 C   -2.516000   -0.148000   -0.053000
 C   -2.071000    1.285000    0.019000
 N    0.680000   -1.802000   -0.292000
 C    2.071000   -1.567000   -0.312000
 C    2.503000   -0.133000   -0.431000
 C    1.552000    0.891000   -0.347000
 C   -1.458000   -2.638000    0.021000
 C   -0.076000   -2.985000   -0.079000
 C    0.088000    2.702000   -0.052000
 C    1.470000    2.355000   -0.163000
 C   -3.947000   -0.392000   -0.050000
 O   -2.833000    2.218000    0.236000
 C    0.383000   -4.287000    0.058000
 C   -0.566000   -5.276000    0.321000
 C   -1.921000   -4.963000    0.450000
 C   -2.374000   -3.653000    0.300000
 C    2.418000    3.368000   -0.009000
 C    1.992000    4.675000    0.227000
 C    0.633000    4.988000    0.305000
 C   -0.344000    4.000000    0.172000
 C    3.919000    0.109000   -0.643000
 O    2.856000   -2.502000   -0.223000
 H   -3.426000   -3.427000    0.410000
 H    1.438000   -4.504000   -0.024000
 H   -1.400000    4.216000    0.251000
 H    3.474000    3.144000   -0.060000
 H    2.730000    5.460000    0.348000
 H   -2.634000   -5.750000    0.669000
 H    0.327000    6.013000    0.480000
 H   -0.240000   -6.304000    0.434000
 C    4.479000    1.148000   -1.362000
 C    5.893000    1.132000   -1.386000
 C    6.440000    0.085000   -0.684000
 S    5.194000   -0.931000   -0.020000
 C   -4.610000   -1.416000   -0.700000
 C   -6.010000   -1.412000   -0.498000
 C   -6.444000   -0.389000    0.310000
 S   -5.111000    0.616000    0.800000
 C    7.893000   -0.253000   -0.509000
 C   -7.851000   -0.069000    0.723000
 H    8.427000   -0.165000    0.300000
 H   -8.433000    0.600000    0.400000
 H    3.881000    1.873000   -1.895000
 H    6.493000    1.859000   -1.919000
 H   -4.100000   -2.123000   -1.339000
 H   -6.684000   -2.132000   -0.946000
 H    8.475000    0.425000   -1.144000
 H    8.080000   -1.265000   -0.886000
 H   -7.911000   -0.017000    1.816000
 H   -8.489000   -0.907000    0.418000

